----------------------------------------------------------
Initialized.
BEGIN Configuration File: /home/zxf1/master_code/Genetic_A/sqtf_NoC_traces/logs/chiplet_0_mesh_config
// $Id$

// Copyright (c) 2007-2015, Trustees of The Leland Stanford Junior University
// All rights reserved.
//
// Redistribution and use in source and binary forms, with or without
// modification, are permitted provided that the following conditions are met:
//
// Redistributions of source code must retain the above copyright notice, this
// list of conditions and the following disclaimer.
// Redistributions in binary form must reproduce the above copyright notice,
// this list of conditions and the following disclaimer in the documentation
// and/or other materials provided with the distribution.
//
// THIS SOFTWARE IS PROVIDED BY THE COPYRIGHT HOLDERS AND CONTRIBUTORS "AS IS"
// AND ANY EXPRESS OR IMPLIED WARRANTIES, INCLUDING, BUT NOT LIMITED TO, THE
// IMPLIED WARRANTIES OF MERCHANTABILITY AND FITNESS FOR A PARTICULAR PURPOSE
// ARE DISCLAIMED. IN NO EVENT SHALL THE COPYRIGHT OWNER OR CONTRIBUTORS BE
// LIABLE FOR ANY DIRECT, INDIRECT, INCIDENTAL, SPECIAL, EXEMPLARY, OR
// CONSEQUENTIAL DAMAGES (INCLUDING, BUT NOT LIMITED TO, PROCUREMENT OF
// SUBSTITUTE GOODS OR SERVICES; LOSS OF USE, DATA, OR PROFITS; OR BUSINESS
// INTERRUPTION) HOWEVER CAUSED AND ON ANY THEORY OF LIABILITY, WHETHER IN
// CONTRACT, STRICT LIABILITY, OR TORT (INCLUDING NEGLIGENCE OR OTHERWISE)
// ARISING IN ANY WAY OUT OF THE USE OF THIS SOFTWARE, EVEN IF ADVISED OF THE
// POSSIBILITY OF SUCH DAMAGE.

//8X8 mesh with 1 flits per packet under injection mode
//injection rate here is packet per cycle, NOT flit per cycle

// Topology

topology = mesh;
//k=16; //trace_based
k=4;
n=2;

// Routing
routing_function = dor;

in_ports = 5;
out_ports = 5;

// Custom Traffic
//traffic = custom;
//injection_process = custom;

// Trace-based Traffic
traffic = trace_based;
injection_process = trace_based;

// Constant delays
routing_delay = 1;
vc_alloc_delay = 1;
sw_alloc_delay = 1;
st_final_delay = 1;

packet_size = 1;


// Simulation
sim_type = latency;
sample_period = 100000;
warmup_periods = 0;
max_samples = 1;

injection_rate = 0.01;

num_vcs = 3;

buf_size = 10;
vc_buf_size = 10;
output_buffer_size = 1;

private_bufs = 1;
private_buf_size = 1;

sim_power = 1;

tech_file = techfile.txt;

channel_width = 32;

//watch_flits = watch_flits.txt;
//watch_file = watch_file.txt;
//watch_out = watch_out.txt;

END Configuration File: /home/zxf1/master_code/Genetic_A/sqtf_NoC_traces/logs/chiplet_0_mesh_config
Trace is finished in 79 cycles
Class 0:
Packet latency average = 16.1695
	minimum = 12
	maximum = 21
Network latency average = 15.8136
	minimum = 12
	maximum = 19
Slowest packet = 35
Flit latency average = 15.8136
	minimum = 12
	maximum = 19
Slowest flit = 35
Fragmentation average = 0
	minimum = 0
	maximum = 0
Injected packet rate average = 0.0466772
	minimum = 0 (at node 0)
	maximum = 0.746835 (at node 1)
Accepted packet rate average = 0.0466772
	minimum = 0 (at node 0)
	maximum = 0.746835 (at node 2)
Injected flit rate average = 0.0466772
	minimum = 0 (at node 0)
	maximum = 0.746835 (at node 1)
Accepted flit rate average= 0.0466772
	minimum = 0 (at node 0)
	maximum = 0.746835 (at node 2)
Injected packet length average = 1
Accepted packet length average = 1
Total in-flight flits = 0 (0 measured)
latency change    = 1
throughput change = 1
Too many sample periods needed to converge
Simulation unstable, ending ...
Total run time 1.41201
L = 2 K = 8.1 M = 2 N = 1
-----------------------------------------
- OCN Power Summary
- Completion Time:         79
- Flit Widths:            32
- Channel Wire Power:      0.614139
- Channel Clock Power:     0.181781
- Channel Retiming Power:  0.00763034
- Channel Leakage Power:   0.0685283
- Input Read Power:        0.0146057
- Input Write Power:       0.0146057
- Input Leakage Power:     0.0221184
- Switch Power:            0.0130768
- Switch Control Power:    0.00556918
- Switch Leakage Power:    0.0292826
- Output DFF Power:        0.00254345
- Output Clk Power:        0.0757423
- Output Control Power:    0.00131263
- Total Power:             1.05094
-----------------------------------------

-----------------------------------------
- OCN Area Summary
- Channel Area:  0.013621
- Switch  Area:  0.0104858
- Input  Area:   0.023593
- Output  Area:  0.00209715
- Total Area:    0.0497969
-----------------------------------------
